# generated using pymatgen
data_Li6PS5Cl
_symmetry_space_group_name_H-M   'P 1'
_cell_length_a   10.10000000
_cell_length_b   10.10000000
_cell_length_c   10.10000000
_cell_angle_alpha   90.00000000
_cell_angle_beta   90.00000000
_cell_angle_gamma   90.00000000
_symmetry_Int_Tables_number   1
_chemical_formula_structural   Li6PS5Cl
_chemical_formula_sum   'Li24 P4 S20 Cl4'
_cell_volume   1030.30100000
_cell_formula_units_Z   4
loop_
 _symmetry_equiv_pos_site_id
 _symmetry_equiv_pos_as_xyz
  1  'x, y, z'
loop_
 _atom_site_type_symbol
 _atom_site_label
 _atom_site_symmetry_multiplicity
 _atom_site_fract_x
 _atom_site_fract_y
 _atom_site_fract_z
 _atom_site_occupancy
  Li  Li1  1  0.02260000  0.25000000  0.25000000  1.0
  Li  Li1  1  0.97740000  0.75000000  0.25000000  1.0
  Li  Li1  1  0.97740000  0.25000000  0.75000000  1.0
  Li  Li1  1  0.02260000  0.75000000  0.75000000  1.0
  Li  Li1  1  0.25000000  0.02260000  0.25000000  1.0
  Li  Li1  1  0.25000000  0.97740000  0.75000000  1.0
  Li  Li1  1  0.75000000  0.97740000  0.25000000  1.0
  Li  Li1  1  0.75000000  0.02260000  0.75000000  1.0
  Li  Li1  1  0.25000000  0.25000000  0.02260000  1.0
  Li  Li1  1  0.75000000  0.25000000  0.97740000  1.0
  Li  Li1  1  0.25000000  0.75000000  0.97740000  1.0
  Li  Li1  1  0.75000000  0.75000000  0.02260000  1.0
  Li  Li1  1  0.25000000  0.52260000  0.75000000  1.0
  Li  Li1  1  0.25000000  0.47740000  0.25000000  1.0
  Li  Li1  1  0.75000000  0.47740000  0.75000000  1.0
  Li  Li1  1  0.75000000  0.52260000  0.25000000  1.0
  Li  Li1  1  0.25000000  0.75000000  0.52260000  1.0
  Li  Li1  1  0.75000000  0.75000000  0.47740000  1.0
  Li  Li1  1  0.25000000  0.25000000  0.47740000  1.0
  Li  Li1  1  0.75000000  0.25000000  0.52260000  1.0
  Li  Li1  1  0.52260000  0.25000000  0.75000000  1.0
  Li  Li1  1  0.47740000  0.75000000  0.75000000  1.0
  Li  Li1  1  0.47740000  0.25000000  0.25000000  1.0
  Li  Li1  1  0.52260000  0.75000000  0.25000000  1.0
  P  P25  1  0.00000000  0.00000000  0.50000000  1.0
  P  P25  1  0.50000000  0.00000000  0.00000000  1.0
  P  P25  1  0.00000000  0.50000000  0.00000000  1.0
  P  P25  1  0.50000000  0.50000000  0.50000000  1.0
  S  S29  1  0.11721000  0.11721000  0.61721000  1.0
  S  S29  1  0.88279000  0.88279000  0.61721000  1.0
  S  S29  1  0.88279000  0.11721000  0.38279000  1.0
  S  S29  1  0.11721000  0.88279000  0.38279000  1.0
  S  S29  1  0.61721000  0.11721000  0.11721000  1.0
  S  S29  1  0.61721000  0.88279000  0.88279000  1.0
  S  S29  1  0.38279000  0.88279000  0.11721000  1.0
  S  S29  1  0.38279000  0.11721000  0.88279000  1.0
  S  S29  1  0.11721000  0.61721000  0.11721000  1.0
  S  S29  1  0.88279000  0.61721000  0.88279000  1.0
  S  S29  1  0.11721000  0.38279000  0.88279000  1.0
  S  S29  1  0.88279000  0.38279000  0.11721000  1.0
  S  S29  1  0.61721000  0.61721000  0.61721000  1.0
  S  S29  1  0.61721000  0.38279000  0.38279000  1.0
  S  S29  1  0.38279000  0.38279000  0.61721000  1.0
  S  S29  1  0.38279000  0.61721000  0.38279000  1.0
  S  S45  1  0.25000000  0.25000000  0.25000000  1.0
  S  S45  1  0.75000000  0.75000000  0.25000000  1.0
  S  S45  1  0.75000000  0.25000000  0.75000000  1.0
  S  S45  1  0.25000000  0.75000000  0.75000000  1.0
  Cl  Cl49  1  0.00000000  0.00000000  0.00000000  1.0
  Cl  Cl49  1  0.00000000  0.50000000  0.50000000  1.0
  Cl  Cl49  1  0.50000000  0.00000000  0.50000000  1.0
  Cl  Cl49  1  0.50000000  0.50000000  0.00000000  1.0
